AMOSTRA/RIM/GD.dss
! GERACAO DISTRIBUIDA — gerada de UGBT_tab e UGMT_tab
! Unidades com potencia nula sao omitidas (gerariam NaN).
! 281 unidades descartadas por potencia nula.
! 427 unidades de BT realocadas para o secundario do transformador (rede secundaria nao modelada).
! 0 unidades descartadas por ponto de conexao ausente da rede.
! irradiance=1 — ver o docstring: 1,0 e meio-dia de ceu claro, nao a ponta de carga.
! 5 barras tiveram a GD limitada a capacidade do transformador (27 kW cortados).
! inversores em pf=1 — ver o docstring de _pv: 0,92 e capacidade exigida pelo PRODIST, nao despacho.
! 0 unidades de MT ligadas pelo PAC da carga (casadas por CEG_GD): o PAC da UGMT nao existe na SSDMT.
New PVSystem.GD_2928ab9a5d1477aa89ac0ed95d17bfd1cb01d5b531fdbcab4d8cb812eb3e3a2b phases=3 bus1=25424-9936446.1.2.3 conn=wye kv=13.8000 pf=1 pmpp=8.56 kva=8.56 irradiance=1 temperature=25 %cutin=20 %cutout=20 effcurve=MyEff P-TCurve=MyPvsT Daily=IRRAD_DIA TDaily=TEMP_DIA
New PVSystem.GD_f68e564e3d15caed65c55e9e48243d57e1821d1c96d76442582b154c101466d9 phases=3 bus1=25424-9940928.1.2.3 conn=wye kv=13.8000 pf=1 pmpp=8.55 kva=8.55 irradiance=1 temperature=25 %cutin=20 %cutout=20 effcurve=MyEff P-TCurve=MyPvsT Daily=IRRAD_DIA TDaily=TEMP_DIA
New PVSystem.GD_dd53e3ea552f22e7e69cbb3eecda29c8c2ac43f1266a0eaaf5b939985ccc3652 phases=3 bus1=25424-12449574.1.2.3 conn=wye kv=13.8000 pf=1 pmpp=6.34 kva=6.34 irradiance=1 temperature=25 %cutin=20 %cutout=20 effcurve=MyEff P-TCurve=MyPvsT Daily=IRRAD_DIA TDaily=TEMP_DIA
New PVSystem.GD_8e2e09d2476aaabdb27495d91094730c8c3d3ae4371a598163019b1df8315b10 phases=3 bus1=25987-9940096.1.2.3 conn=wye kv=13.8000 pf=1 pmpp=20.47 kva=20.47 irradiance=1 temperature=25 %cutin=20 %cutout=20 effcurve=MyEff P-TCurve=MyPvsT Daily=IRRAD_DIA TDaily=TEMP_DIA
New PVSystem.GD_edf0b1fab63e33ec6dd9de3307348c7f701c1e1bb4b4c4d998747eb19253901d phases=3 bus1=25987-9940862.1.2.3 conn=wye kv=13.8000 pf=1 pmpp=5.63 kva=5.63 irradiance=1 temperature=25 %cutin=20 %cutout=20 effcurve=MyEff P-TCurve=MyPvsT Daily=IRRAD_DIA TDaily=TEMP_DIA
New PVSystem.GD_54323c4ed6844f80b82981f844cd1bdcd373ba13b45e75a4646414ab39888c97 phases=3 bus1=25424-9940873.1.2.3 conn=wye kv=13.8000 pf=1 pmpp=4.02 kva=4.02 irradiance=1 temperature=25 %cutin=20 %cutout=20 effcurve=MyEff P-TCurve=MyPvsT Daily=IRRAD_DIA TDaily=TEMP_DIA
New PVSystem.GD_7e1111dd0266356fd3e60398be5a41cdad1acdfc0382500511bda0650de2cb1b phases=3 bus1=25987-12525798.1.2.3 conn=wye kv=13.8000 pf=1 pmpp=14.39 kva=14.39 irradiance=1 temperature=25 %cutin=20 %cutout=20 effcurve=MyEff P-TCurve=MyPvsT Daily=IRRAD_DIA TDaily=TEMP_DIA
New PVSystem.GD_5d259a552f9f0009765085c79321a1f64e521159ae7b8940aa62bb116bb0e57f_1 phases=1 bus1=2864116-11327187.1.4 conn=wye kv=0.1270 pf=1 pmpp=0.94 kva=0.94 irradiance=1 temperature=25 %cutin=20 %cutout=20 effcurve=MyEff P-TCurve=MyPvsT Daily=IRRAD_DIA TDaily=TEMP_DIA
New PVSystem.GD_5d259a552f9f0009765085c79321a1f64e521159ae7b8940aa62bb116bb0e57f_2 phases=1 bus1=2864116-11327187.2.4 conn=wye kv=0.1270 pf=1 pmpp=0.94 kva=0.94 irradiance=1 temperature=25 %cutin=20 %cutout=20 effcurve=MyEff P-TCurve=MyPvsT Daily=IRRAD_DIA TDaily=TEMP_DIA
New PVSystem.GD_5d259a552f9f0009765085c79321a1f64e521159ae7b8940aa62bb116bb0e57f_3 phases=1 bus1=2864116-11327187.3.4 conn=wye kv=0.1270 pf=1 pmpp=0.94 kva=0.94 irradiance=1 temperature=25 %cutin=20 %cutout=20 effcurve=MyEff P-TCurve=MyPvsT Daily=IRRAD_DIA TDaily=TEMP_DIA
New PVSystem.GD_d5f51610a7ce64ef7da39210d00f9356d4c732103d77fcd54cecf3443175a2ce_1 phases=1 bus1=2864116-11327187.1.4 conn=wye kv=0.1270 pf=1 pmpp=1.86 kva=1.86 irradiance=1 temperature=25 %cutin=20 %cutout=20 effcurve=MyEff P-TCurve=MyPvsT Daily=IRRAD_DIA TDaily=TEMP_DIA
New PVSystem.GD_d5f51610a7ce64ef7da39210d00f9356d4c732103d77fcd54cecf3443175a2ce_2 phases=1 bus1=2864116-11327187.2.4 conn=wye kv=0.1270 pf=1 pmpp=1.86 kva=1.86 irradiance=1 temperature=25 %cutin=20 %cutout=20 effcurve=MyEff P-TCurve=MyPvsT Daily=IRRAD_DIA TDaily=TEMP_DIA
New PVSystem.GD_d5f51610a7ce64ef7da39210d00f9356d4c732103d77fcd54cecf3443175a2ce_3 phases=1 bus1=2864116-11327187.3.4 conn=wye kv=0.1270 pf=1 pmpp=1.86 kva=1.86 irradiance=1 temperature=25 %cutin=20 %cutout=20 effcurve=MyEff P-TCurve=MyPvsT Daily=IRRAD_DIA TDaily=TEMP_DIA
New PVSystem.GD_fac4eddc8844c69677b884f3ce78cb5cc04bfa5567757059fa59be8700926f16_1 phases=1 bus1=2864116-11327187.1.4 conn=wye kv=0.1270 pf=1 pmpp=0.78 kva=0.78 irradiance=1 temperature=25 %cutin=20 %cutout=20 effcurve=MyEff P-TCurve=MyPvsT Daily=IRRAD_DIA TDaily=TEMP_DIA
New PVSystem.GD_fac4eddc8844c69677b884f3ce78cb5cc04bfa5567757059fa59be8700926f16_2 phases=1 bus1=2864116-11327187.2.4 conn=wye kv=0.1270 pf=1 pmpp=0.78 kva=0.78 irradiance=1 temperature=25 %cutin=20 %cutout=20 effcurve=MyEff P-TCurve=MyPvsT Daily=IRRAD_DIA TDaily=TEMP_DIA
New PVSystem.GD_fac4eddc8844c69677b884f3ce78cb5cc04bfa5567757059fa59be8700926f16_3 phases=1 bus1=2864116-11327187.3.4 conn=wye kv=0.1270 pf=1 pmpp=0.78 kva=0.78 irradiance=1 temperature=25 %cutin=20 %cutout=20 effcurve=MyEff P-TCurve=MyPvsT Daily=IRRAD_DIA TDaily=TEMP_DIA
New PVSystem.GD_614d1dff7a9a1cd999c7a993e07f5085da3e7fc062facfc683892e4d6e42d1f8_1 phases=1 bus1=2864116-11327187.1.4 conn=wye kv=0.1270 pf=1 pmpp=0.62 kva=0.62 irradiance=1 temperature=25 %cutin=20 %cutout=20 effcurve=MyEff P-TCurve=MyPvsT Daily=IRRAD_DIA TDaily=TEMP_DIA
New PVSystem.GD_614d1dff7a9a1cd999c7a993e07f5085da3e7fc062facfc683892e4d6e42d1f8_2 phases=1 bus1=2864116-11327187.2.4 conn=wye kv=0.1270 pf=1 pmpp=0.62 kva=0.62 irradiance=1 temperature=25 %cutin=20 %cutout=20 effcurve=MyEff P-TCurve=MyPvsT Daily=IRRAD_DIA TDaily=TEMP_DIA
New PVSystem.GD_614d1dff7a9a1cd999c7a993e07f5085da3e7fc062facfc683892e4d6e42d1f8_3 phases=1 bus1=2864116-11327187.3.4 conn=wye kv=0.1270 pf=1 pmpp=0.62 kva=0.62 irradiance=1 temperature=25 %cutin=20 %cutout=20 effcurve=MyEff P-TCurve=MyPvsT Daily=IRRAD_DIA TDaily=TEMP_DIA
New PVSystem.GD_031ef5482c37d66c4354f5d3036872d0c29ff74736ec91f66b224ad3f808b56f_1 phases=1 bus1=2771627-10843703v.1.4 conn=wye kv=0.1100 pf=1 pmpp=1.71 kva=1.71 irradiance=1 temperature=25 %cutin=20 %cutout=20 effcurve=MyEff P-TCurve=MyPvsT Daily=IRRAD_DIA TDaily=TEMP_DIA
New PVSystem.GD_031ef5482c37d66c4354f5d3036872d0c29ff74736ec91f66b224ad3f808b56f_2 phases=1 bus1=2771627-10843703v.2.4 conn=wye kv=0.1100 pf=1 pmpp=1.71 kva=1.71 irradiance=1 temperature=25 %cutin=20 %cutout=20 effcurve=MyEff P-TCurve=MyPvsT Daily=IRRAD_DIA TDaily=TEMP_DIA
New PVSystem.GD_b7e22a0bbfea11b7c994da38115b456162472a3e4eda57b5bd1e359b21ab5c5e_1 phases=1 bus1=2603618-9940859v.1.4 conn=wye kv=0.1100 pf=1 pmpp=5.15 kva=5.15 irradiance=1 temperature=25 %cutin=20 %cutout=20 effcurve=MyEff P-TCurve=MyPvsT Daily=IRRAD_DIA TDaily=TEMP_DIA
New PVSystem.GD_b7e22a0bbfea11b7c994da38115b456162472a3e4eda57b5bd1e359b21ab5c5e_2 phases=1 bus1=2603618-9940859v.2.4 conn=wye kv=0.1100 pf=1 pmpp=5.15 kva=5.15 irradiance=1 temperature=25 %cutin=20 %cutout=20 effcurve=MyEff P-TCurve=MyPvsT Daily=IRRAD_DIA TDaily=TEMP_DIA
New PVSystem.GD_dfbd7bf850699e395044a9e64aa987c119de681f7ce341fc62b581963872c6e8_1 phases=1 bus1=2603618-9940859v.1.4 conn=wye kv=0.1100 pf=1 pmpp=1.93 kva=1.93 irradiance=1 temperature=25 %cutin=20 %cutout=20 effcurve=MyEff P-TCurve=MyPvsT Daily=IRRAD_DIA TDaily=TEMP_DIA
New PVSystem.GD_dfbd7bf850699e395044a9e64aa987c119de681f7ce341fc62b581963872c6e8_2 phases=1 bus1=2603618-9940859v.2.4 conn=wye kv=0.1100 pf=1 pmpp=1.93 kva=1.93 irradiance=1 temperature=25 %cutin=20 %cutout=20 effcurve=MyEff P-TCurve=MyPvsT Daily=IRRAD_DIA TDaily=TEMP_DIA
New PVSystem.GD_f463fedfee716953acd00444d7a8b35236f82229f2c35d24c8dc6d99654b91d0_1 phases=1 bus1=2603703-9937759v.1.4 conn=wye kv=0.1100 pf=1 pmpp=4.24 kva=4.24 irradiance=1 temperature=25 %cutin=20 %cutout=20 effcurve=MyEff P-TCurve=MyPvsT Daily=IRRAD_DIA TDaily=TEMP_DIA
New PVSystem.GD_f463fedfee716953acd00444d7a8b35236f82229f2c35d24c8dc6d99654b91d0_2 phases=1 bus1=2603703-9937759v.2.4 conn=wye kv=0.1100 pf=1 pmpp=4.24 kva=4.24 irradiance=1 temperature=25 %cutin=20 %cutout=20 effcurve=MyEff P-TCurve=MyPvsT Daily=IRRAD_DIA TDaily=TEMP_DIA
New PVSystem.GD_4222001ac4620e039f1dd6ce160fbca1aed19b436dbd1619a7bb87d674d38df6_1 phases=1 bus1=2603619-9936347v.1.4 conn=wye kv=0.1100 pf=1 pmpp=6.06 kva=6.06 irradiance=1 temperature=25 %cutin=20 %cutout=20 effcurve=MyEff P-TCurve=MyPvsT Daily=IRRAD_DIA TDaily=TEMP_DIA
New PVSystem.GD_4222001ac4620e039f1dd6ce160fbca1aed19b436dbd1619a7bb87d674d38df6_2 phases=1 bus1=2603619-9936347v.2.4 conn=wye kv=0.1100 pf=1 pmpp=6.06 kva=6.06 irradiance=1 temperature=25 %cutin=20 %cutout=20 effcurve=MyEff P-TCurve=MyPvsT Daily=IRRAD_DIA TDaily=TEMP_DIA
New PVSystem.GD_b345b0780e064b295f12e5456365ce4c9fe2d9121d5627b6b57c9e0fa83aedc4_1 phases=1 bus1=2599911-9918930v.1.4 conn=wye kv=0.1100 pf=1 pmpp=2.18 kva=2.18 irradiance=1 temperature=25 %cutin=20 %cutout=20 effcurve=MyEff P-TCurve=MyPvsT Daily=IRRAD_DIA TDaily=TEMP_DIA
New PVSystem.GD_b345b0780e064b295f12e5456365ce4c9fe2d9121d5627b6b57c9e0fa83aedc4_2 phases=1 bus1=2599911-9918930v.2.4 conn=wye kv=0.1100 pf=1 pmpp=2.18 kva=2.18 irradiance=1 temperature=25 %cutin=20 %cutout=20 effcurve=MyEff P-TCurve=MyPvsT Daily=IRRAD_DIA TDaily=TEMP_DIA
New PVSystem.GD_729c6201ceb1ca5df094286f79b8023b95384e86a5a1c5c06e56d6721ce7d0f4_1 phases=1 bus1=3053412-12046816.1.4 conn=wye kv=0.1100 pf=1 pmpp=1.87 kva=1.87 irradiance=1 temperature=25 %cutin=20 %cutout=20 effcurve=MyEff P-TCurve=MyPvsT Daily=IRRAD_DIA TDaily=TEMP_DIA
New PVSystem.GD_729c6201ceb1ca5df094286f79b8023b95384e86a5a1c5c06e56d6721ce7d0f4_2 phases=1 bus1=3053412-12046816.2.4 conn=wye kv=0.1100 pf=1 pmpp=1.87 kva=1.87 irradiance=1 temperature=25 %cutin=20 %cutout=20 effcurve=MyEff P-TCurve=MyPvsT Daily=IRRAD_DIA TDaily=TEMP_DIA
New PVSystem.GD_7cca72d2b99bed3d8eb20650016db8b0d5965dc65e60b6b29b7ff5a677d73095_1 phases=1 bus1=2603261-9936348v.1.4 conn=wye kv=0.1100 pf=1 pmpp=1.25 kva=1.25 irradiance=1 temperature=25 %cutin=20 %cutout=20 effcurve=MyEff P-TCurve=MyPvsT Daily=IRRAD_DIA TDaily=TEMP_DIA
New PVSystem.GD_7cca72d2b99bed3d8eb20650016db8b0d5965dc65e60b6b29b7ff5a677d73095_2 phases=1 bus1=2603261-9936348v.2.4 conn=wye kv=0.1100 pf=1 pmpp=1.25 kva=1.25 irradiance=1 temperature=25 %cutin=20 %cutout=20 effcurve=MyEff P-TCurve=MyPvsT Daily=IRRAD_DIA TDaily=TEMP_DIA
New PVSystem.GD_84de3f4a57298e2097e8844c9bef1125f675972ef1d3890e3d5ca19994d9a195_1 phases=1 bus1=2603661-9937734.1.4 conn=wye kv=0.1270 pf=1 pmpp=1.29 kva=1.29 irradiance=1 temperature=25 %cutin=20 %cutout=20 effcurve=MyEff P-TCurve=MyPvsT Daily=IRRAD_DIA TDaily=TEMP_DIA
New PVSystem.GD_84de3f4a57298e2097e8844c9bef1125f675972ef1d3890e3d5ca19994d9a195_2 phases=1 bus1=2603661-9937734.2.4 conn=wye kv=0.1270 pf=1 pmpp=1.29 kva=1.29 irradiance=1 temperature=25 %cutin=20 %cutout=20 effcurve=MyEff P-TCurve=MyPvsT Daily=IRRAD_DIA TDaily=TEMP_DIA
New PVSystem.GD_84de3f4a57298e2097e8844c9bef1125f675972ef1d3890e3d5ca19994d9a195_3 phases=1 bus1=2603661-9937734.3.4 conn=wye kv=0.1270 pf=1 pmpp=1.29 kva=1.29 irradiance=1 temperature=25 %cutin=20 %cutout=20 effcurve=MyEff P-TCurve=MyPvsT Daily=IRRAD_DIA TDaily=TEMP_DIA
New PVSystem.GD_f8915865e7e4bc40f2611dd9c425dd82277247a1e08f941cd61e19ca87ffd1c6_1 phases=1 bus1=2603399-9936465v.1.4 conn=wye kv=0.1270 pf=1 pmpp=12.73 kva=12.73 irradiance=1 temperature=25 %cutin=20 %cutout=20 effcurve=MyEff P-TCurve=MyPvsT Daily=IRRAD_DIA TDaily=TEMP_DIA
New PVSystem.GD_f8915865e7e4bc40f2611dd9c425dd82277247a1e08f941cd61e19ca87ffd1c6_2 phases=1 bus1=2603399-9936465v.2.4 conn=wye kv=0.1270 pf=1 pmpp=12.73 kva=12.73 irradiance=1 temperature=25 %cutin=20 %cutout=20 effcurve=MyEff P-TCurve=MyPvsT Daily=IRRAD_DIA TDaily=TEMP_DIA
New PVSystem.GD_f8915865e7e4bc40f2611dd9c425dd82277247a1e08f941cd61e19ca87ffd1c6_3 phases=1 bus1=2603399-9936465v.3.4 conn=wye kv=0.1270 pf=1 pmpp=12.73 kva=12.73 irradiance=1 temperature=25 %cutin=20 %cutout=20 effcurve=MyEff P-TCurve=MyPvsT Daily=IRRAD_DIA TDaily=TEMP_DIA
New PVSystem.GD_f9e47a0f9f64ed50d1846a124a633eefa0a1392e86b0fd4c374dec47aeca4f21_1 phases=1 bus1=2611807-12973992.1.4 conn=wye kv=0.1100 pf=1 pmpp=1.70 kva=1.70 irradiance=1 temperature=25 %cutin=20 %cutout=20 effcurve=MyEff P-TCurve=MyPvsT Daily=IRRAD_DIA TDaily=TEMP_DIA
New PVSystem.GD_f9e47a0f9f64ed50d1846a124a633eefa0a1392e86b0fd4c374dec47aeca4f21_2 phases=1 bus1=2611807-12973992.2.4 conn=wye kv=0.1100 pf=1 pmpp=1.70 kva=1.70 irradiance=1 temperature=25 %cutin=20 %cutout=20 effcurve=MyEff P-TCurve=MyPvsT Daily=IRRAD_DIA TDaily=TEMP_DIA
New PVSystem.GD_9b3f8d4bb1c2c6f551b9129003b91dbc60e9d97669de9bed29c2ffd7907fff22_1 phases=1 bus1=2773182-10833330.1.4 conn=wye kv=0.1100 pf=1 pmpp=1.34 kva=1.34 irradiance=1 temperature=25 %cutin=20 %cutout=20 effcurve=MyEff P-TCurve=MyPvsT Daily=IRRAD_DIA TDaily=TEMP_DIA
New PVSystem.GD_9b3f8d4bb1c2c6f551b9129003b91dbc60e9d97669de9bed29c2ffd7907fff22_2 phases=1 bus1=2773182-10833330.2.4 conn=wye kv=0.1100 pf=1 pmpp=1.34 kva=1.34 irradiance=1 temperature=25 %cutin=20 %cutout=20 effcurve=MyEff P-TCurve=MyPvsT Daily=IRRAD_DIA TDaily=TEMP_DIA
New PVSystem.GD_7a14b52908d5444375e300acff0ecff3452aafd0e60f8c5dcf89ff524c1d0ba2_1 phases=1 bus1=3159739-12716197v.1.4 conn=wye kv=0.1100 pf=1 pmpp=3.36 kva=3.36 irradiance=1 temperature=25 %cutin=20 %cutout=20 effcurve=MyEff P-TCurve=MyPvsT Daily=IRRAD_DIA TDaily=TEMP_DIA
New PVSystem.GD_7a14b52908d5444375e300acff0ecff3452aafd0e60f8c5dcf89ff524c1d0ba2_2 phases=1 bus1=3159739-12716197v.2.4 conn=wye kv=0.1100 pf=1 pmpp=3.36 kva=3.36 irradiance=1 temperature=25 %cutin=20 %cutout=20 effcurve=MyEff P-TCurve=MyPvsT Daily=IRRAD_DIA TDaily=TEMP_DIA
New PVSystem.GD_02e03f76017b3c1bd55f111ed7189fc5b5bcec6f93470d2aa77daedca3b2aeed_1 phases=1 bus1=2771708-10842422.1.4 conn=wye kv=0.1100 pf=1 pmpp=0.51 kva=0.51 irradiance=1 temperature=25 %cutin=20 %cutout=20 effcurve=MyEff P-TCurve=MyPvsT Daily=IRRAD_DIA TDaily=TEMP_DIA
New PVSystem.GD_02e03f76017b3c1bd55f111ed7189fc5b5bcec6f93470d2aa77daedca3b2aeed_2 phases=1 bus1=2771708-10842422.2.4 conn=wye kv=0.1100 pf=1 pmpp=0.51 kva=0.51 irradiance=1 temperature=25 %cutin=20 %cutout=20 effcurve=MyEff P-TCurve=MyPvsT Daily=IRRAD_DIA TDaily=TEMP_DIA
New PVSystem.GD_7902d9d96223077a8116df5163e82c06b492a8a85898265cb769247e63ece507_1 phases=1 bus1=2772050-10835086v.1.4 conn=wye kv=0.1100 pf=1 pmpp=0.62 kva=0.62 irradiance=1 temperature=25 %cutin=20 %cutout=20 effcurve=MyEff P-TCurve=MyPvsT Daily=IRRAD_DIA TDaily=TEMP_DIA
New PVSystem.GD_7902d9d96223077a8116df5163e82c06b492a8a85898265cb769247e63ece507_2 phases=1 bus1=2772050-10835086v.2.4 conn=wye kv=0.1100 pf=1 pmpp=0.62 kva=0.62 irradiance=1 temperature=25 %cutin=20 %cutout=20 effcurve=MyEff P-TCurve=MyPvsT Daily=IRRAD_DIA TDaily=TEMP_DIA
New PVSystem.GD_ccc1318dbe8bf8b7d682ec03906f36c12bed81362493349b0f5b5e49160e4fc9_1 phases=1 bus1=2771255-10825815v.1.4 conn=wye kv=0.1100 pf=1 pmpp=2.20 kva=2.20 irradiance=1 temperature=25 %cutin=20 %cutout=20 effcurve=MyEff P-TCurve=MyPvsT Daily=IRRAD_DIA TDaily=TEMP_DIA
New PVSystem.GD_ccc1318dbe8bf8b7d682ec03906f36c12bed81362493349b0f5b5e49160e4fc9_2 phases=1 bus1=2771255-10825815v.2.4 conn=wye kv=0.1100 pf=1 pmpp=2.20 kva=2.20 irradiance=1 temperature=25 %cutin=20 %cutout=20 effcurve=MyEff P-TCurve=MyPvsT Daily=IRRAD_DIA TDaily=TEMP_DIA
New PVSystem.GD_58ac32504e6346d94f02593e18492bf4e7276e5db2b0d297db0721b5b855aa89_1 phases=1 bus1=2893296-11369217v.1.4 conn=wye kv=0.1270 pf=1 pmpp=1.63 kva=1.63 irradiance=1 temperature=25 %cutin=20 %cutout=20 effcurve=MyEff P-TCurve=MyPvsT Daily=IRRAD_DIA TDaily=TEMP_DIA
New PVSystem.GD_58ac32504e6346d94f02593e18492bf4e7276e5db2b0d297db0721b5b855aa89_2 phases=1 bus1=2893296-11369217v.2.4 conn=wye kv=0.1270 pf=1 pmpp=1.63 kva=1.63 irradiance=1 temperature=25 %cutin=20 %cutout=20 effcurve=MyEff P-TCurve=MyPvsT Daily=IRRAD_DIA TDaily=TEMP_DIA
New PVSystem.GD_58ac32504e6346d94f02593e18492bf4e7276e5db2b0d297db0721b5b855aa89_3 phases=1 bus1=2893296-11369217v.3.4 conn=wye kv=0.1270 pf=1 pmpp=1.63 kva=1.63 irradiance=1 temperature=25 %cutin=20 %cutout=20 effcurve=MyEff P-TCurve=MyPvsT Daily=IRRAD_DIA TDaily=TEMP_DIA
New PVSystem.GD_5c5aa78a43d581508ad2749e5ea4e54a09a49c196d16ee8a757295254f761b0c_1 phases=1 bus1=2603024-9938456.1.4 conn=wye kv=0.1270 pf=1 pmpp=1.01 kva=1.01 irradiance=1 temperature=25 %cutin=20 %cutout=20 effcurve=MyEff P-TCurve=MyPvsT Daily=IRRAD_DIA TDaily=TEMP_DIA
New PVSystem.GD_5c5aa78a43d581508ad2749e5ea4e54a09a49c196d16ee8a757295254f761b0c_2 phases=1 bus1=2603024-9938456.2.4 conn=wye kv=0.1270 pf=1 pmpp=1.01 kva=1.01 irradiance=1 temperature=25 %cutin=20 %cutout=20 effcurve=MyEff P-TCurve=MyPvsT Daily=IRRAD_DIA TDaily=TEMP_DIA
New PVSystem.GD_5c5aa78a43d581508ad2749e5ea4e54a09a49c196d16ee8a757295254f761b0c_3 phases=1 bus1=2603024-9938456.3.4 conn=wye kv=0.1270 pf=1 pmpp=1.01 kva=1.01 irradiance=1 temperature=25 %cutin=20 %cutout=20 effcurve=MyEff P-TCurve=MyPvsT Daily=IRRAD_DIA TDaily=TEMP_DIA
New PVSystem.GD_296462e70322afed91ddfa624b8f3305f5945a0c3843edc1381405baf03797e0_1 phases=1 bus1=2603024-9938456.1.4 conn=wye kv=0.1270 pf=1 pmpp=0.77 kva=0.77 irradiance=1 temperature=25 %cutin=20 %cutout=20 effcurve=MyEff P-TCurve=MyPvsT Daily=IRRAD_DIA TDaily=TEMP_DIA
New PVSystem.GD_296462e70322afed91ddfa624b8f3305f5945a0c3843edc1381405baf03797e0_2 phases=1 bus1=2603024-9938456.2.4 conn=wye kv=0.1270 pf=1 pmpp=0.77 kva=0.77 irradiance=1 temperature=25 %cutin=20 %cutout=20 effcurve=MyEff P-TCurve=MyPvsT Daily=IRRAD_DIA TDaily=TEMP_DIA
New PVSystem.GD_296462e70322afed91ddfa624b8f3305f5945a0c3843edc1381405baf03797e0_3 phases=1 bus1=2603024-9938456.3.4 conn=wye kv=0.1270 pf=1 pmpp=0.77 kva=0.77 irradiance=1 temperature=25 %cutin=20 %cutout=20 effcurve=MyEff P-TCurve=MyPvsT Daily=IRRAD_DIA TDaily=TEMP_DIA
New PVSystem.GD_305aa2fd93a94d2549da3ca40e79a44408315b0f39b113af13dde3bb5a160608_1 phases=1 bus1=2603024-9938456.1.4 conn=wye kv=0.1270 pf=1 pmpp=0.85 kva=0.85 irradiance=1 temperature=25 %cutin=20 %cutout=20 effcurve=MyEff P-TCurve=MyPvsT Daily=IRRAD_DIA TDaily=TEMP_DIA
New PVSystem.GD_305aa2fd93a94d2549da3ca40e79a44408315b0f39b113af13dde3bb5a160608_2 phases=1 bus1=2603024-9938456.2.4 conn=wye kv=0.1270 pf=1 pmpp=0.85 kva=0.85 irradiance=1 temperature=25 %cutin=20 %cutout=20 effcurve=MyEff P-TCurve=MyPvsT Daily=IRRAD_DIA TDaily=TEMP_DIA
New PVSystem.GD_305aa2fd93a94d2549da3ca40e79a44408315b0f39b113af13dde3bb5a160608_3 phases=1 bus1=2603024-9938456.3.4 conn=wye kv=0.1270 pf=1 pmpp=0.85 kva=0.85 irradiance=1 temperature=25 %cutin=20 %cutout=20 effcurve=MyEff P-TCurve=MyPvsT Daily=IRRAD_DIA TDaily=TEMP_DIA
New PVSystem.GD_20be8ac438d25da243be8738eb973fb09994a9e47a4000ca07abf46f6c90f139_1 phases=1 bus1=2603127-9937737.1.4 conn=wye kv=0.1270 pf=1 pmpp=0.62 kva=0.62 irradiance=1 temperature=25 %cutin=20 %cutout=20 effcurve=MyEff P-TCurve=MyPvsT Daily=IRRAD_DIA TDaily=TEMP_DIA
New PVSystem.GD_20be8ac438d25da243be8738eb973fb09994a9e47a4000ca07abf46f6c90f139_2 phases=1 bus1=2603127-9937737.2.4 conn=wye kv=0.1270 pf=1 pmpp=0.62 kva=0.62 irradiance=1 temperature=25 %cutin=20 %cutout=20 effcurve=MyEff P-TCurve=MyPvsT Daily=IRRAD_DIA TDaily=TEMP_DIA
New PVSystem.GD_20be8ac438d25da243be8738eb973fb09994a9e47a4000ca07abf46f6c90f139_3 phases=1 bus1=2603127-9937737.3.4 conn=wye kv=0.1270 pf=1 pmpp=0.62 kva=0.62 irradiance=1 temperature=25 %cutin=20 %cutout=20 effcurve=MyEff P-TCurve=MyPvsT Daily=IRRAD_DIA TDaily=TEMP_DIA
New PVSystem.GD_69d59d25d8876293d2c51c31aadec670e0d3b4f27dd7a6062469ac01f1181088_1 phases=1 bus1=2603127-9937737.1.4 conn=wye kv=0.1270 pf=1 pmpp=0.52 kva=0.52 irradiance=1 temperature=25 %cutin=20 %cutout=20 effcurve=MyEff P-TCurve=MyPvsT Daily=IRRAD_DIA TDaily=TEMP_DIA
New PVSystem.GD_69d59d25d8876293d2c51c31aadec670e0d3b4f27dd7a6062469ac01f1181088_2 phases=1 bus1=2603127-9937737.2.4 conn=wye kv=0.1270 pf=1 pmpp=0.52 kva=0.52 irradiance=1 temperature=25 %cutin=20 %cutout=20 effcurve=MyEff P-TCurve=MyPvsT Daily=IRRAD_DIA TDaily=TEMP_DIA
New PVSystem.GD_69d59d25d8876293d2c51c31aadec670e0d3b4f27dd7a6062469ac01f1181088_3 phases=1 bus1=2603127-9937737.3.4 conn=wye kv=0.1270 pf=1 pmpp=0.52 kva=0.52 irradiance=1 temperature=25 %cutin=20 %cutout=20 effcurve=MyEff P-TCurve=MyPvsT Daily=IRRAD_DIA TDaily=TEMP_DIA
New PVSystem.GD_b0f81f54987fb589bb45bf7a4adbc7c5a7c86c15ae7b77511cdcd7bf2da92682_1 phases=1 bus1=2603127-9937737.1.4 conn=wye kv=0.1270 pf=1 pmpp=0.07 kva=0.10 irradiance=1 temperature=25 %cutin=20 %cutout=20 effcurve=MyEff P-TCurve=MyPvsT Daily=IRRAD_DIA TDaily=TEMP_DIA
New PVSystem.GD_b0f81f54987fb589bb45bf7a4adbc7c5a7c86c15ae7b77511cdcd7bf2da92682_2 phases=1 bus1=2603127-9937737.2.4 conn=wye kv=0.1270 pf=1 pmpp=0.07 kva=0.10 irradiance=1 temperature=25 %cutin=20 %cutout=20 effcurve=MyEff P-TCurve=MyPvsT Daily=IRRAD_DIA TDaily=TEMP_DIA
New PVSystem.GD_b0f81f54987fb589bb45bf7a4adbc7c5a7c86c15ae7b77511cdcd7bf2da92682_3 phases=1 bus1=2603127-9937737.3.4 conn=wye kv=0.1270 pf=1 pmpp=0.07 kva=0.10 irradiance=1 temperature=25 %cutin=20 %cutout=20 effcurve=MyEff P-TCurve=MyPvsT Daily=IRRAD_DIA TDaily=TEMP_DIA
New PVSystem.GD_4b4ac99c755eccd2635c2e1f641b387dc98be4cb6d24b892daa1ba87e17cc220_1 phases=1 bus1=2603127-9937737.1.4 conn=wye kv=0.1270 pf=1 pmpp=1.12 kva=1.12 irradiance=1 temperature=25 %cutin=20 %cutout=20 effcurve=MyEff P-TCurve=MyPvsT Daily=IRRAD_DIA TDaily=TEMP_DIA
New PVSystem.GD_4b4ac99c755eccd2635c2e1f641b387dc98be4cb6d24b892daa1ba87e17cc220_2 phases=1 bus1=2603127-9937737.2.4 conn=wye kv=0.1270 pf=1 pmpp=1.12 kva=1.12 irradiance=1 temperature=25 %cutin=20 %cutout=20 effcurve=MyEff P-TCurve=MyPvsT Daily=IRRAD_DIA TDaily=TEMP_DIA
New PVSystem.GD_4b4ac99c755eccd2635c2e1f641b387dc98be4cb6d24b892daa1ba87e17cc220_3 phases=1 bus1=2603127-9937737.3.4 conn=wye kv=0.1270 pf=1 pmpp=1.12 kva=1.12 irradiance=1 temperature=25 %cutin=20 %cutout=20 effcurve=MyEff P-TCurve=MyPvsT Daily=IRRAD_DIA TDaily=TEMP_DIA
New PVSystem.GD_bc148f8fd9bce6f4cba485b53f88d545f575ff0302da31f0cd873231196da026_1 phases=1 bus1=2603127-9937737.1.4 conn=wye kv=0.1270 pf=1 pmpp=0.76 kva=0.76 irradiance=1 temperature=25 %cutin=20 %cutout=20 effcurve=MyEff P-TCurve=MyPvsT Daily=IRRAD_DIA TDaily=TEMP_DIA
New PVSystem.GD_bc148f8fd9bce6f4cba485b53f88d545f575ff0302da31f0cd873231196da026_2 phases=1 bus1=2603127-9937737.2.4 conn=wye kv=0.1270 pf=1 pmpp=0.76 kva=0.76 irradiance=1 temperature=25 %cutin=20 %cutout=20 effcurve=MyEff P-TCurve=MyPvsT Daily=IRRAD_DIA TDaily=TEMP_DIA
New PVSystem.GD_bc148f8fd9bce6f4cba485b53f88d545f575ff0302da31f0cd873231196da026_3 phases=1 bus1=2603127-9937737.3.4 conn=wye kv=0.1270 pf=1 pmpp=0.76 kva=0.76 irradiance=1 temperature=25 %cutin=20 %cutout=20 effcurve=MyEff P-TCurve=MyPvsT Daily=IRRAD_DIA TDaily=TEMP_DIA
New PVSystem.GD_0ee9713fe20fc785b92e925694fea962798ce26416c122dd62630f01a61116b8_1 phases=1 bus1=2603127-9937737.1.4 conn=wye kv=0.1270 pf=1 pmpp=0.73 kva=0.73 irradiance=1 temperature=25 %cutin=20 %cutout=20 effcurve=MyEff P-TCurve=MyPvsT Daily=IRRAD_DIA TDaily=TEMP_DIA
New PVSystem.GD_0ee9713fe20fc785b92e925694fea962798ce26416c122dd62630f01a61116b8_2 phases=1 bus1=2603127-9937737.2.4 conn=wye kv=0.1270 pf=1 pmpp=0.73 kva=0.73 irradiance=1 temperature=25 %cutin=20 %cutout=20 effcurve=MyEff P-TCurve=MyPvsT Daily=IRRAD_DIA TDaily=TEMP_DIA
New PVSystem.GD_0ee9713fe20fc785b92e925694fea962798ce26416c122dd62630f01a61116b8_3 phases=1 bus1=2603127-9937737.3.4 conn=wye kv=0.1270 pf=1 pmpp=0.73 kva=0.73 irradiance=1 temperature=25 %cutin=20 %cutout=20 effcurve=MyEff P-TCurve=MyPvsT Daily=IRRAD_DIA TDaily=TEMP_DIA
New PVSystem.GD_b193b2fb372466d7902f02cc72dff3a4953da2db43584b92c37445cefbc53554_1 phases=1 bus1=2603127-9937737.1.4 conn=wye kv=0.1270 pf=1 pmpp=1.29 kva=1.29 irradiance=1 temperature=25 %cutin=20 %cutout=20 effcurve=MyEff P-TCurve=MyPvsT Daily=IRRAD_DIA TDaily=TEMP_DIA
New PVSystem.GD_b193b2fb372466d7902f02cc72dff3a4953da2db43584b92c37445cefbc53554_2 phases=1 bus1=2603127-9937737.2.4 conn=wye kv=0.1270 pf=1 pmpp=1.29 kva=1.29 irradiance=1 temperature=25 %cutin=20 %cutout=20 effcurve=MyEff P-TCurve=MyPvsT Daily=IRRAD_DIA TDaily=TEMP_DIA
New PVSystem.GD_b193b2fb372466d7902f02cc72dff3a4953da2db43584b92c37445cefbc53554_3 phases=1 bus1=2603127-9937737.3.4 conn=wye kv=0.1270 pf=1 pmpp=1.29 kva=1.29 irradiance=1 temperature=25 %cutin=20 %cutout=20 effcurve=MyEff P-TCurve=MyPvsT Daily=IRRAD_DIA TDaily=TEMP_DIA
New PVSystem.GD_409e95a07c14fb1579448ae2cc1d082ef237182b2103c172b85de11d6694f033_1 phases=1 bus1=2603127-9937737.1.4 conn=wye kv=0.1270 pf=1 pmpp=0.84 kva=0.84 irradiance=1 temperature=25 %cutin=20 %cutout=20 effcurve=MyEff P-TCurve=MyPvsT Daily=IRRAD_DIA TDaily=TEMP_DIA
New PVSystem.GD_409e95a07c14fb1579448ae2cc1d082ef237182b2103c172b85de11d6694f033_2 phases=1 bus1=2603127-9937737.2.4 conn=wye kv=0.1270 pf=1 pmpp=0.84 kva=0.84 irradiance=1 temperature=25 %cutin=20 %cutout=20 effcurve=MyEff P-TCurve=MyPvsT Daily=IRRAD_DIA TDaily=TEMP_DIA
New PVSystem.GD_409e95a07c14fb1579448ae2cc1d082ef237182b2103c172b85de11d6694f033_3 phases=1 bus1=2603127-9937737.3.4 conn=wye kv=0.1270 pf=1 pmpp=0.84 kva=0.84 irradiance=1 temperature=25 %cutin=20 %cutout=20 effcurve=MyEff P-TCurve=MyPvsT Daily=IRRAD_DIA TDaily=TEMP_DIA
New PVSystem.GD_7e583c4f19d209406170f5485d5f12c3dfe41fa78f5c679b339610fded22c555_1 phases=1 bus1=2603127-9937737.1.4 conn=wye kv=0.1270 pf=1 pmpp=9.05 kva=9.05 irradiance=1 temperature=25 %cutin=20 %cutout=20 effcurve=MyEff P-TCurve=MyPvsT Daily=IRRAD_DIA TDaily=TEMP_DIA
New PVSystem.GD_7e583c4f19d209406170f5485d5f12c3dfe41fa78f5c679b339610fded22c555_2 phases=1 bus1=2603127-9937737.2.4 conn=wye kv=0.1270 pf=1 pmpp=9.05 kva=9.05 irradiance=1 temperature=25 %cutin=20 %cutout=20 effcurve=MyEff P-TCurve=MyPvsT Daily=IRRAD_DIA TDaily=TEMP_DIA
New PVSystem.GD_7e583c4f19d209406170f5485d5f12c3dfe41fa78f5c679b339610fded22c555_3 phases=1 bus1=2603127-9937737.3.4 conn=wye kv=0.1270 pf=1 pmpp=9.05 kva=9.05 irradiance=1 temperature=25 %cutin=20 %cutout=20 effcurve=MyEff P-TCurve=MyPvsT Daily=IRRAD_DIA TDaily=TEMP_DIA
New PVSystem.GD_101bdabc6b0b83ac92ca10e1afc4b410f1dac4b215d9f75aac12ffb84262ffd2_1 phases=1 bus1=2603525-9939836.1.4 conn=wye kv=0.1270 pf=1 pmpp=1.36 kva=1.36 irradiance=1 temperature=25 %cutin=20 %cutout=20 effcurve=MyEff P-TCurve=MyPvsT Daily=IRRAD_DIA TDaily=TEMP_DIA
New PVSystem.GD_101bdabc6b0b83ac92ca10e1afc4b410f1dac4b215d9f75aac12ffb84262ffd2_2 phases=1 bus1=2603525-9939836.2.4 conn=wye kv=0.1270 pf=1 pmpp=1.36 kva=1.36 irradiance=1 temperature=25 %cutin=20 %cutout=20 effcurve=MyEff P-TCurve=MyPvsT Daily=IRRAD_DIA TDaily=TEMP_DIA
New PVSystem.GD_101bdabc6b0b83ac92ca10e1afc4b410f1dac4b215d9f75aac12ffb84262ffd2_3 phases=1 bus1=2603525-9939836.3.4 conn=wye kv=0.1270 pf=1 pmpp=1.36 kva=1.36 irradiance=1 temperature=25 %cutin=20 %cutout=20 effcurve=MyEff P-TCurve=MyPvsT Daily=IRRAD_DIA TDaily=TEMP_DIA
New PVSystem.GD_5c6400ac34f8ad3f2e4634e25fe386f73454982c15c3b8f86dd48a741394aded_1 phases=1 bus1=2771098-11343625.1.4 conn=wye kv=0.1270 pf=1 pmpp=0.86 kva=0.86 irradiance=1 temperature=25 %cutin=20 %cutout=20 effcurve=MyEff P-TCurve=MyPvsT Daily=IRRAD_DIA TDaily=TEMP_DIA
New PVSystem.GD_5c6400ac34f8ad3f2e4634e25fe386f73454982c15c3b8f86dd48a741394aded_2 phases=1 bus1=2771098-11343625.2.4 conn=wye kv=0.1270 pf=1 pmpp=0.86 kva=0.86 irradiance=1 temperature=25 %cutin=20 %cutout=20 effcurve=MyEff P-TCurve=MyPvsT Daily=IRRAD_DIA TDaily=TEMP_DIA
New PVSystem.GD_5c6400ac34f8ad3f2e4634e25fe386f73454982c15c3b8f86dd48a741394aded_3 phases=1 bus1=2771098-11343625.3.4 conn=wye kv=0.1270 pf=1 pmpp=0.86 kva=0.86 irradiance=1 temperature=25 %cutin=20 %cutout=20 effcurve=MyEff P-TCurve=MyPvsT Daily=IRRAD_DIA TDaily=TEMP_DIA
New PVSystem.GD_481e4ccfcdd2716b1702da6c42289eef928e1a19b09f90f02859cfbccc9a392c_1 phases=1 bus1=2771098-11343625.1.4 conn=wye kv=0.1270 pf=1 pmpp=3.15 kva=3.15 irradiance=1 temperature=25 %cutin=20 %cutout=20 effcurve=MyEff P-TCurve=MyPvsT Daily=IRRAD_DIA TDaily=TEMP_DIA
New PVSystem.GD_481e4ccfcdd2716b1702da6c42289eef928e1a19b09f90f02859cfbccc9a392c_2 phases=1 bus1=2771098-11343625.2.4 conn=wye kv=0.1270 pf=1 pmpp=3.15 kva=3.15 irradiance=1 temperature=25 %cutin=20 %cutout=20 effcurve=MyEff P-TCurve=MyPvsT Daily=IRRAD_DIA TDaily=TEMP_DIA
New PVSystem.GD_481e4ccfcdd2716b1702da6c42289eef928e1a19b09f90f02859cfbccc9a392c_3 phases=1 bus1=2771098-11343625.3.4 conn=wye kv=0.1270 pf=1 pmpp=3.15 kva=3.15 irradiance=1 temperature=25 %cutin=20 %cutout=20 effcurve=MyEff P-TCurve=MyPvsT Daily=IRRAD_DIA TDaily=TEMP_DIA
New PVSystem.GD_b2eb9685ab75b50fa95cefdbe947568900b3106f6c2c107f6d979953ac5a88f0_1 phases=1 bus1=2939746-11455209.1.4 conn=wye kv=0.1270 pf=1 pmpp=7.14 kva=7.14 irradiance=1 temperature=25 %cutin=20 %cutout=20 effcurve=MyEff P-TCurve=MyPvsT Daily=IRRAD_DIA TDaily=TEMP_DIA
New PVSystem.GD_b2eb9685ab75b50fa95cefdbe947568900b3106f6c2c107f6d979953ac5a88f0_2 phases=1 bus1=2939746-11455209.2.4 conn=wye kv=0.1270 pf=1 pmpp=7.14 kva=7.14 irradiance=1 temperature=25 %cutin=20 %cutout=20 effcurve=MyEff P-TCurve=MyPvsT Daily=IRRAD_DIA TDaily=TEMP_DIA
New PVSystem.GD_b2eb9685ab75b50fa95cefdbe947568900b3106f6c2c107f6d979953ac5a88f0_3 phases=1 bus1=2939746-11455209.3.4 conn=wye kv=0.1270 pf=1 pmpp=7.14 kva=7.14 irradiance=1 temperature=25 %cutin=20 %cutout=20 effcurve=MyEff P-TCurve=MyPvsT Daily=IRRAD_DIA TDaily=TEMP_DIA
New PVSystem.GD_4863e4e244a9e84481ede6bbf6c59ca28ad187dc301949d61bc7032054349b91_1 phases=1 bus1=2939746-11455209.1.4 conn=wye kv=0.1270 pf=1 pmpp=1.23 kva=1.23 irradiance=1 temperature=25 %cutin=20 %cutout=20 effcurve=MyEff P-TCurve=MyPvsT Daily=IRRAD_DIA TDaily=TEMP_DIA
New PVSystem.GD_4863e4e244a9e84481ede6bbf6c59ca28ad187dc301949d61bc7032054349b91_2 phases=1 bus1=2939746-11455209.2.4 conn=wye kv=0.1270 pf=1 pmpp=1.23 kva=1.23 irradiance=1 temperature=25 %cutin=20 %cutout=20 effcurve=MyEff P-TCurve=MyPvsT Daily=IRRAD_DIA TDaily=TEMP_DIA
New PVSystem.GD_4863e4e244a9e84481ede6bbf6c59ca28ad187dc301949d61bc7032054349b91_3 phases=1 bus1=2939746-11455209.3.4 conn=wye kv=0.1270 pf=1 pmpp=1.23 kva=1.23 irradiance=1 temperature=25 %cutin=20 %cutout=20 effcurve=MyEff P-TCurve=MyPvsT Daily=IRRAD_DIA TDaily=TEMP_DIA
New PVSystem.GD_52052eaa4b0e78538d49ad2afccd7b2121b4177d23212f30dc4de47a067a361f_1 phases=1 bus1=2939746-11455209.1.4 conn=wye kv=0.1270 pf=1 pmpp=1.44 kva=1.44 irradiance=1 temperature=25 %cutin=20 %cutout=20 effcurve=MyEff P-TCurve=MyPvsT Daily=IRRAD_DIA TDaily=TEMP_DIA
New PVSystem.GD_52052eaa4b0e78538d49ad2afccd7b2121b4177d23212f30dc4de47a067a361f_2 phases=1 bus1=2939746-11455209.2.4 conn=wye kv=0.1270 pf=1 pmpp=1.44 kva=1.44 irradiance=1 temperature=25 %cutin=20 %cutout=20 effcurve=MyEff P-TCurve=MyPvsT Daily=IRRAD_DIA TDaily=TEMP_DIA
New PVSystem.GD_52052eaa4b0e78538d49ad2afccd7b2121b4177d23212f30dc4de47a067a361f_3 phases=1 bus1=2939746-11455209.3.4 conn=wye kv=0.1270 pf=1 pmpp=1.44 kva=1.44 irradiance=1 temperature=25 %cutin=20 %cutout=20 effcurve=MyEff P-TCurve=MyPvsT Daily=IRRAD_DIA TDaily=TEMP_DIA
New PVSystem.GD_bcab65bc41f45600e7ec70c78268681eaa9c84b44fe21b7c8d124311844fb21c_1 phases=1 bus1=2772135-10838914.1.4 conn=wye kv=0.1270 pf=1 pmpp=3.09 kva=3.09 irradiance=1 temperature=25 %cutin=20 %cutout=20 effcurve=MyEff P-TCurve=MyPvsT Daily=IRRAD_DIA TDaily=TEMP_DIA
New PVSystem.GD_bcab65bc41f45600e7ec70c78268681eaa9c84b44fe21b7c8d124311844fb21c_2 phases=1 bus1=2772135-10838914.2.4 conn=wye kv=0.1270 pf=1 pmpp=3.09 kva=3.09 irradiance=1 temperature=25 %cutin=20 %cutout=20 effcurve=MyEff P-TCurve=MyPvsT Daily=IRRAD_DIA TDaily=TEMP_DIA
New PVSystem.GD_bcab65bc41f45600e7ec70c78268681eaa9c84b44fe21b7c8d124311844fb21c_3 phases=1 bus1=2772135-10838914.3.4 conn=wye kv=0.1270 pf=1 pmpp=3.09 kva=3.09 irradiance=1 temperature=25 %cutin=20 %cutout=20 effcurve=MyEff P-TCurve=MyPvsT Daily=IRRAD_DIA TDaily=TEMP_DIA
New PVSystem.GD_e30cb6373032ec835d0da659b7cd8ff809b1fc557c5f0b7b4606397ef6d03897_1 phases=1 bus1=3166289-12781786.1.4 conn=wye kv=0.1270 pf=1 pmpp=1.34 kva=1.34 irradiance=1 temperature=25 %cutin=20 %cutout=20 effcurve=MyEff P-TCurve=MyPvsT Daily=IRRAD_DIA TDaily=TEMP_DIA
New PVSystem.GD_e30cb6373032ec835d0da659b7cd8ff809b1fc557c5f0b7b4606397ef6d03897_2 phases=1 bus1=3166289-12781786.2.4 conn=wye kv=0.1270 pf=1 pmpp=1.34 kva=1.34 irradiance=1 temperature=25 %cutin=20 %cutout=20 effcurve=MyEff P-TCurve=MyPvsT Daily=IRRAD_DIA TDaily=TEMP_DIA
New PVSystem.GD_e30cb6373032ec835d0da659b7cd8ff809b1fc557c5f0b7b4606397ef6d03897_3 phases=1 bus1=3166289-12781786.3.4 conn=wye kv=0.1270 pf=1 pmpp=1.34 kva=1.34 irradiance=1 temperature=25 %cutin=20 %cutout=20 effcurve=MyEff P-TCurve=MyPvsT Daily=IRRAD_DIA TDaily=TEMP_DIA
New PVSystem.GD_7c84640d9dd5391c8ccd83291305c06c173c24fa543ddb018505d029b69540c5_1 phases=1 bus1=2771633-10828804.1.4 conn=wye kv=0.1270 pf=1 pmpp=2.31 kva=2.31 irradiance=1 temperature=25 %cutin=20 %cutout=20 effcurve=MyEff P-TCurve=MyPvsT Daily=IRRAD_DIA TDaily=TEMP_DIA
New PVSystem.GD_7c84640d9dd5391c8ccd83291305c06c173c24fa543ddb018505d029b69540c5_2 phases=1 bus1=2771633-10828804.2.4 conn=wye kv=0.1270 pf=1 pmpp=2.31 kva=2.31 irradiance=1 temperature=25 %cutin=20 %cutout=20 effcurve=MyEff P-TCurve=MyPvsT Daily=IRRAD_DIA TDaily=TEMP_DIA
New PVSystem.GD_7c84640d9dd5391c8ccd83291305c06c173c24fa543ddb018505d029b69540c5_3 phases=1 bus1=2771633-10828804.3.4 conn=wye kv=0.1270 pf=1 pmpp=2.31 kva=2.31 irradiance=1 temperature=25 %cutin=20 %cutout=20 effcurve=MyEff P-TCurve=MyPvsT Daily=IRRAD_DIA TDaily=TEMP_DIA
New PVSystem.GD_af5f7b41cf65ee254f4eb59ca71a17ec7e9668c8451b1965dfcac1946506684f_1 phases=1 bus1=2771633-10828804.1.4 conn=wye kv=0.1270 pf=1 pmpp=0.91 kva=0.91 irradiance=1 temperature=25 %cutin=20 %cutout=20 effcurve=MyEff P-TCurve=MyPvsT Daily=IRRAD_DIA TDaily=TEMP_DIA
New PVSystem.GD_af5f7b41cf65ee254f4eb59ca71a17ec7e9668c8451b1965dfcac1946506684f_2 phases=1 bus1=2771633-10828804.2.4 conn=wye kv=0.1270 pf=1 pmpp=0.91 kva=0.91 irradiance=1 temperature=25 %cutin=20 %cutout=20 effcurve=MyEff P-TCurve=MyPvsT Daily=IRRAD_DIA TDaily=TEMP_DIA
New PVSystem.GD_af5f7b41cf65ee254f4eb59ca71a17ec7e9668c8451b1965dfcac1946506684f_3 phases=1 bus1=2771633-10828804.3.4 conn=wye kv=0.1270 pf=1 pmpp=0.91 kva=0.91 irradiance=1 temperature=25 %cutin=20 %cutout=20 effcurve=MyEff P-TCurve=MyPvsT Daily=IRRAD_DIA TDaily=TEMP_DIA
New PVSystem.GD_2cadc14652e99494b6f806f0cac8924d70a6fe08b87123dc12511da6ceb10b9f_1 phases=1 bus1=2771633-10828804.1.4 conn=wye kv=0.1270 pf=1 pmpp=1.15 kva=1.15 irradiance=1 temperature=25 %cutin=20 %cutout=20 effcurve=MyEff P-TCurve=MyPvsT Daily=IRRAD_DIA TDaily=TEMP_DIA
New PVSystem.GD_2cadc14652e99494b6f806f0cac8924d70a6fe08b87123dc12511da6ceb10b9f_2 phases=1 bus1=2771633-10828804.2.4 conn=wye kv=0.1270 pf=1 pmpp=1.15 kva=1.15 irradiance=1 temperature=25 %cutin=20 %cutout=20 effcurve=MyEff P-TCurve=MyPvsT Daily=IRRAD_DIA TDaily=TEMP_DIA
New PVSystem.GD_2cadc14652e99494b6f806f0cac8924d70a6fe08b87123dc12511da6ceb10b9f_3 phases=1 bus1=2771633-10828804.3.4 conn=wye kv=0.1270 pf=1 pmpp=1.15 kva=1.15 irradiance=1 temperature=25 %cutin=20 %cutout=20 effcurve=MyEff P-TCurve=MyPvsT Daily=IRRAD_DIA TDaily=TEMP_DIA
New PVSystem.GD_26dd85e2b3cb507668baa5c0c09aea51da4aa0b2a9b23a7378a3543ed3863df5_1 phases=1 bus1=2771633-10828804.1.4 conn=wye kv=0.1270 pf=1 pmpp=0.57 kva=0.57 irradiance=1 temperature=25 %cutin=20 %cutout=20 effcurve=MyEff P-TCurve=MyPvsT Daily=IRRAD_DIA TDaily=TEMP_DIA
New PVSystem.GD_26dd85e2b3cb507668baa5c0c09aea51da4aa0b2a9b23a7378a3543ed3863df5_2 phases=1 bus1=2771633-10828804.2.4 conn=wye kv=0.1270 pf=1 pmpp=0.57 kva=0.57 irradiance=1 temperature=25 %cutin=20 %cutout=20 effcurve=MyEff P-TCurve=MyPvsT Daily=IRRAD_DIA TDaily=TEMP_DIA
New PVSystem.GD_26dd85e2b3cb507668baa5c0c09aea51da4aa0b2a9b23a7378a3543ed3863df5_3 phases=1 bus1=2771633-10828804.3.4 conn=wye kv=0.1270 pf=1 pmpp=0.57 kva=0.57 irradiance=1 temperature=25 %cutin=20 %cutout=20 effcurve=MyEff P-TCurve=MyPvsT Daily=IRRAD_DIA TDaily=TEMP_DIA
New PVSystem.GD_d038b634ab8659271180ab16f1e793a9730ba9b5700be8b9913d63f61eefcda3_1 phases=1 bus1=2771633-10828804.1.4 conn=wye kv=0.1270 pf=1 pmpp=0.74 kva=0.74 irradiance=1 temperature=25 %cutin=20 %cutout=20 effcurve=MyEff P-TCurve=MyPvsT Daily=IRRAD_DIA TDaily=TEMP_DIA
New PVSystem.GD_d038b634ab8659271180ab16f1e793a9730ba9b5700be8b9913d63f61eefcda3_2 phases=1 bus1=2771633-10828804.2.4 conn=wye kv=0.1270 pf=1 pmpp=0.74 kva=0.74 irradiance=1 temperature=25 %cutin=20 %cutout=20 effcurve=MyEff P-TCurve=MyPvsT Daily=IRRAD_DIA TDaily=TEMP_DIA
New PVSystem.GD_d038b634ab8659271180ab16f1e793a9730ba9b5700be8b9913d63f61eefcda3_3 phases=1 bus1=2771633-10828804.3.4 conn=wye kv=0.1270 pf=1 pmpp=0.74 kva=0.74 irradiance=1 temperature=25 %cutin=20 %cutout=20 effcurve=MyEff P-TCurve=MyPvsT Daily=IRRAD_DIA TDaily=TEMP_DIA
New PVSystem.GD_63cb742a51c71c4147e45336c08c48f11e55f2af4c72cfb35cbaaffcfd96b064_1 phases=1 bus1=2603229-9940417.1.4 conn=wye kv=0.1270 pf=1 pmpp=0.88 kva=0.88 irradiance=1 temperature=25 %cutin=20 %cutout=20 effcurve=MyEff P-TCurve=MyPvsT Daily=IRRAD_DIA TDaily=TEMP_DIA
New PVSystem.GD_63cb742a51c71c4147e45336c08c48f11e55f2af4c72cfb35cbaaffcfd96b064_2 phases=1 bus1=2603229-9940417.2.4 conn=wye kv=0.1270 pf=1 pmpp=0.88 kva=0.88 irradiance=1 temperature=25 %cutin=20 %cutout=20 effcurve=MyEff P-TCurve=MyPvsT Daily=IRRAD_DIA TDaily=TEMP_DIA
New PVSystem.GD_63cb742a51c71c4147e45336c08c48f11e55f2af4c72cfb35cbaaffcfd96b064_3 phases=1 bus1=2603229-9940417.3.4 conn=wye kv=0.1270 pf=1 pmpp=0.88 kva=0.88 irradiance=1 temperature=25 %cutin=20 %cutout=20 effcurve=MyEff P-TCurve=MyPvsT Daily=IRRAD_DIA TDaily=TEMP_DIA
New PVSystem.GD_a9424ca3d90d37cb6ff4e4e408e8fd2f35718f03a060e03a6afd912cccff9e0a_1 phases=1 bus1=3118360-12467495.1.4 conn=wye kv=0.1270 pf=1 pmpp=2.00 kva=2.00 irradiance=1 temperature=25 %cutin=20 %cutout=20 effcurve=MyEff P-TCurve=MyPvsT Daily=IRRAD_DIA TDaily=TEMP_DIA
New PVSystem.GD_a9424ca3d90d37cb6ff4e4e408e8fd2f35718f03a060e03a6afd912cccff9e0a_2 phases=1 bus1=3118360-12467495.2.4 conn=wye kv=0.1270 pf=1 pmpp=2.00 kva=2.00 irradiance=1 temperature=25 %cutin=20 %cutout=20 effcurve=MyEff P-TCurve=MyPvsT Daily=IRRAD_DIA TDaily=TEMP_DIA
New PVSystem.GD_a9424ca3d90d37cb6ff4e4e408e8fd2f35718f03a060e03a6afd912cccff9e0a_3 phases=1 bus1=3118360-12467495.3.4 conn=wye kv=0.1270 pf=1 pmpp=2.00 kva=2.00 irradiance=1 temperature=25 %cutin=20 %cutout=20 effcurve=MyEff P-TCurve=MyPvsT Daily=IRRAD_DIA TDaily=TEMP_DIA
New PVSystem.GD_b3e9691a58e424fb189c58efd092a14156d99d199701919aaef734129db2b4c9_1 phases=1 bus1=3118360-12467495.1.4 conn=wye kv=0.1270 pf=1 pmpp=0.44 kva=0.44 irradiance=1 temperature=25 %cutin=20 %cutout=20 effcurve=MyEff P-TCurve=MyPvsT Daily=IRRAD_DIA TDaily=TEMP_DIA
New PVSystem.GD_b3e9691a58e424fb189c58efd092a14156d99d199701919aaef734129db2b4c9_2 phases=1 bus1=3118360-12467495.2.4 conn=wye kv=0.1270 pf=1 pmpp=0.44 kva=0.44 irradiance=1 temperature=25 %cutin=20 %cutout=20 effcurve=MyEff P-TCurve=MyPvsT Daily=IRRAD_DIA TDaily=TEMP_DIA
New PVSystem.GD_b3e9691a58e424fb189c58efd092a14156d99d199701919aaef734129db2b4c9_3 phases=1 bus1=3118360-12467495.3.4 conn=wye kv=0.1270 pf=1 pmpp=0.44 kva=0.44 irradiance=1 temperature=25 %cutin=20 %cutout=20 effcurve=MyEff P-TCurve=MyPvsT Daily=IRRAD_DIA TDaily=TEMP_DIA
New PVSystem.GD_f0791e198e5f081c66785baf9f38e992b4dc494463db6309c25e34799bde659b_1 phases=1 bus1=2603133-9937031.1.4 conn=wye kv=0.1270 pf=1 pmpp=1.03 kva=1.03 irradiance=1 temperature=25 %cutin=20 %cutout=20 effcurve=MyEff P-TCurve=MyPvsT Daily=IRRAD_DIA TDaily=TEMP_DIA
New PVSystem.GD_f0791e198e5f081c66785baf9f38e992b4dc494463db6309c25e34799bde659b_2 phases=1 bus1=2603133-9937031.2.4 conn=wye kv=0.1270 pf=1 pmpp=1.03 kva=1.03 irradiance=1 temperature=25 %cutin=20 %cutout=20 effcurve=MyEff P-TCurve=MyPvsT Daily=IRRAD_DIA TDaily=TEMP_DIA
New PVSystem.GD_f0791e198e5f081c66785baf9f38e992b4dc494463db6309c25e34799bde659b_3 phases=1 bus1=2603133-9937031.3.4 conn=wye kv=0.1270 pf=1 pmpp=1.03 kva=1.03 irradiance=1 temperature=25 %cutin=20 %cutout=20 effcurve=MyEff P-TCurve=MyPvsT Daily=IRRAD_DIA TDaily=TEMP_DIA
New PVSystem.GD_aca7e3f8e1515e062377df5652c9ec9213c1eb3c8c50520841b3b2c9edcd8098_1 phases=1 bus1=2603133-9937031.1.4 conn=wye kv=0.1270 pf=1 pmpp=1.48 kva=1.48 irradiance=1 temperature=25 %cutin=20 %cutout=20 effcurve=MyEff P-TCurve=MyPvsT Daily=IRRAD_DIA TDaily=TEMP_DIA
New PVSystem.GD_aca7e3f8e1515e062377df5652c9ec9213c1eb3c8c50520841b3b2c9edcd8098_2 phases=1 bus1=2603133-9937031.2.4 conn=wye kv=0.1270 pf=1 pmpp=1.48 kva=1.48 irradiance=1 temperature=25 %cutin=20 %cutout=20 effcurve=MyEff P-TCurve=MyPvsT Daily=IRRAD_DIA TDaily=TEMP_DIA
New PVSystem.GD_aca7e3f8e1515e062377df5652c9ec9213c1eb3c8c50520841b3b2c9edcd8098_3 phases=1 bus1=2603133-9937031.3.4 conn=wye kv=0.1270 pf=1 pmpp=1.48 kva=1.48 irradiance=1 temperature=25 %cutin=20 %cutout=20 effcurve=MyEff P-TCurve=MyPvsT Daily=IRRAD_DIA TDaily=TEMP_DIA
New PVSystem.GD_596c7e3ff04aab5bef4bdf3886bbe34d6e497f2ee2486a71a3d25de8d29ff5a7_1 phases=1 bus1=2603133-9937031.1.4 conn=wye kv=0.1270 pf=1 pmpp=3.14 kva=3.14 irradiance=1 temperature=25 %cutin=20 %cutout=20 effcurve=MyEff P-TCurve=MyPvsT Daily=IRRAD_DIA TDaily=TEMP_DIA
New PVSystem.GD_596c7e3ff04aab5bef4bdf3886bbe34d6e497f2ee2486a71a3d25de8d29ff5a7_2 phases=1 bus1=2603133-9937031.2.4 conn=wye kv=0.1270 pf=1 pmpp=3.14 kva=3.14 irradiance=1 temperature=25 %cutin=20 %cutout=20 effcurve=MyEff P-TCurve=MyPvsT Daily=IRRAD_DIA TDaily=TEMP_DIA
New PVSystem.GD_596c7e3ff04aab5bef4bdf3886bbe34d6e497f2ee2486a71a3d25de8d29ff5a7_3 phases=1 bus1=2603133-9937031.3.4 conn=wye kv=0.1270 pf=1 pmpp=3.14 kva=3.14 irradiance=1 temperature=25 %cutin=20 %cutout=20 effcurve=MyEff P-TCurve=MyPvsT Daily=IRRAD_DIA TDaily=TEMP_DIA
New PVSystem.GD_4e55b681f299dd77a59e065c54945abcb687de066c605c91a4e5e3cc84c69e65_1 phases=1 bus1=2603133-9937031.1.4 conn=wye kv=0.1270 pf=1 pmpp=0.92 kva=0.92 irradiance=1 temperature=25 %cutin=20 %cutout=20 effcurve=MyEff P-TCurve=MyPvsT Daily=IRRAD_DIA TDaily=TEMP_DIA
New PVSystem.GD_4e55b681f299dd77a59e065c54945abcb687de066c605c91a4e5e3cc84c69e65_2 phases=1 bus1=2603133-9937031.2.4 conn=wye kv=0.1270 pf=1 pmpp=0.92 kva=0.92 irradiance=1 temperature=25 %cutin=20 %cutout=20 effcurve=MyEff P-TCurve=MyPvsT Daily=IRRAD_DIA TDaily=TEMP_DIA
New PVSystem.GD_4e55b681f299dd77a59e065c54945abcb687de066c605c91a4e5e3cc84c69e65_3 phases=1 bus1=2603133-9937031.3.4 conn=wye kv=0.1270 pf=1 pmpp=0.92 kva=0.92 irradiance=1 temperature=25 %cutin=20 %cutout=20 effcurve=MyEff P-TCurve=MyPvsT Daily=IRRAD_DIA TDaily=TEMP_DIA
New PVSystem.GD_673f74cf6c461639adf89f81068fc28422c54f28d49380f5952994a9363bb54b_1 phases=1 bus1=2603133-9937031.1.4 conn=wye kv=0.1270 pf=1 pmpp=0.74 kva=0.74 irradiance=1 temperature=25 %cutin=20 %cutout=20 effcurve=MyEff P-TCurve=MyPvsT Daily=IRRAD_DIA TDaily=TEMP_DIA
New PVSystem.GD_673f74cf6c461639adf89f81068fc28422c54f28d49380f5952994a9363bb54b_2 phases=1 bus1=2603133-9937031.2.4 conn=wye kv=0.1270 pf=1 pmpp=0.74 kva=0.74 irradiance=1 temperature=25 %cutin=20 %cutout=20 effcurve=MyEff P-TCurve=MyPvsT Daily=IRRAD_DIA TDaily=TEMP_DIA
New PVSystem.GD_673f74cf6c461639adf89f81068fc28422c54f28d49380f5952994a9363bb54b_3 phases=1 bus1=2603133-9937031.3.4 conn=wye kv=0.1270 pf=1 pmpp=0.74 kva=0.74 irradiance=1 temperature=25 %cutin=20 %cutout=20 effcurve=MyEff P-TCurve=MyPvsT Daily=IRRAD_DIA TDaily=TEMP_DIA
New PVSystem.GD_4abc2ae41158e5958dfc5c8f7a20ae23f73d9adbdc391559826ee0f16c740ab1_1 phases=1 bus1=2603133-9937031.1.4 conn=wye kv=0.1270 pf=1 pmpp=0.73 kva=0.73 irradiance=1 temperature=25 %cutin=20 %cutout=20 effcurve=MyEff P-TCurve=MyPvsT Daily=IRRAD_DIA TDaily=TEMP_DIA
New PVSystem.GD_4abc2ae41158e5958dfc5c8f7a20ae23f73d9adbdc391559826ee0f16c740ab1_2 phases=1 bus1=2603133-9937031.2.4 conn=wye kv=0.1270 pf=1 pmpp=0.73 kva=0.73 irradiance=1 temperature=25 %cutin=20 %cutout=20 effcurve=MyEff P-TCurve=MyPvsT Daily=IRRAD_DIA TDaily=TEMP_DIA
New PVSystem.GD_4abc2ae41158e5958dfc5c8f7a20ae23f73d9adbdc391559826ee0f16c740ab1_3 phases=1 bus1=2603133-9937031.3.4 conn=wye kv=0.1270 pf=1 pmpp=0.73 kva=0.73 irradiance=1 temperature=25 %cutin=20 %cutout=20 effcurve=MyEff P-TCurve=MyPvsT Daily=IRRAD_DIA TDaily=TEMP_DIA
New PVSystem.GD_1c58fb7e83814fae624a43592582d61f583bf6488d5f09e6d18e81bb0ec30083_1 phases=1 bus1=2603666-9939035.1.4 conn=wye kv=0.1270 pf=1 pmpp=3.87 kva=3.87 irradiance=1 temperature=25 %cutin=20 %cutout=20 effcurve=MyEff P-TCurve=MyPvsT Daily=IRRAD_DIA TDaily=TEMP_DIA
New PVSystem.GD_1c58fb7e83814fae624a43592582d61f583bf6488d5f09e6d18e81bb0ec30083_2 phases=1 bus1=2603666-9939035.2.4 conn=wye kv=0.1270 pf=1 pmpp=3.87 kva=3.87 irradiance=1 temperature=25 %cutin=20 %cutout=20 effcurve=MyEff P-TCurve=MyPvsT Daily=IRRAD_DIA TDaily=TEMP_DIA
New PVSystem.GD_1c58fb7e83814fae624a43592582d61f583bf6488d5f09e6d18e81bb0ec30083_3 phases=1 bus1=2603666-9939035.3.4 conn=wye kv=0.1270 pf=1 pmpp=3.87 kva=3.87 irradiance=1 temperature=25 %cutin=20 %cutout=20 effcurve=MyEff P-TCurve=MyPvsT Daily=IRRAD_DIA TDaily=TEMP_DIA
New PVSystem.GD_16aaa5b57a45e75fd8c197ccefb50cc0216c464af90114c0c98a545250fc4e66_1 phases=1 bus1=2603666-9939035.1.4 conn=wye kv=0.1270 pf=1 pmpp=1.34 kva=1.34 irradiance=1 temperature=25 %cutin=20 %cutout=20 effcurve=MyEff P-TCurve=MyPvsT Daily=IRRAD_DIA TDaily=TEMP_DIA
New PVSystem.GD_16aaa5b57a45e75fd8c197ccefb50cc0216c464af90114c0c98a545250fc4e66_2 phases=1 bus1=2603666-9939035.2.4 conn=wye kv=0.1270 pf=1 pmpp=1.34 kva=1.34 irradiance=1 temperature=25 %cutin=20 %cutout=20 effcurve=MyEff P-TCurve=MyPvsT Daily=IRRAD_DIA TDaily=TEMP_DIA
New PVSystem.GD_16aaa5b57a45e75fd8c197ccefb50cc0216c464af90114c0c98a545250fc4e66_3 phases=1 bus1=2603666-9939035.3.4 conn=wye kv=0.1270 pf=1 pmpp=1.34 kva=1.34 irradiance=1 temperature=25 %cutin=20 %cutout=20 effcurve=MyEff P-TCurve=MyPvsT Daily=IRRAD_DIA TDaily=TEMP_DIA
New PVSystem.GD_beb618eeed511b9c535359b58889ee801e203cb20c2e12c2283bb1b932529394_1 phases=1 bus1=2603666-9939035.1.4 conn=wye kv=0.1270 pf=1 pmpp=0.84 kva=0.84 irradiance=1 temperature=25 %cutin=20 %cutout=20 effcurve=MyEff P-TCurve=MyPvsT Daily=IRRAD_DIA TDaily=TEMP_DIA
New PVSystem.GD_beb618eeed511b9c535359b58889ee801e203cb20c2e12c2283bb1b932529394_2 phases=1 bus1=2603666-9939035.2.4 conn=wye kv=0.1270 pf=1 pmpp=0.84 kva=0.84 irradiance=1 temperature=25 %cutin=20 %cutout=20 effcurve=MyEff P-TCurve=MyPvsT Daily=IRRAD_DIA TDaily=TEMP_DIA
New PVSystem.GD_beb618eeed511b9c535359b58889ee801e203cb20c2e12c2283bb1b932529394_3 phases=1 bus1=2603666-9939035.3.4 conn=wye kv=0.1270 pf=1 pmpp=0.84 kva=0.84 irradiance=1 temperature=25 %cutin=20 %cutout=20 effcurve=MyEff P-TCurve=MyPvsT Daily=IRRAD_DIA TDaily=TEMP_DIA
New PVSystem.GD_45f3e8673cf643e808e3e323b5967ba67e9dd426031641f7a7a11c2c33cb62f7_1 phases=1 bus1=2603666-9939035.1.4 conn=wye kv=0.1270 pf=1 pmpp=0.87 kva=0.87 irradiance=1 temperature=25 %cutin=20 %cutout=20 effcurve=MyEff P-TCurve=MyPvsT Daily=IRRAD_DIA TDaily=TEMP_DIA
New PVSystem.GD_45f3e8673cf643e808e3e323b5967ba67e9dd426031641f7a7a11c2c33cb62f7_2 phases=1 bus1=2603666-9939035.2.4 conn=wye kv=0.1270 pf=1 pmpp=0.87 kva=0.87 irradiance=1 temperature=25 %cutin=20 %cutout=20 effcurve=MyEff P-TCurve=MyPvsT Daily=IRRAD_DIA TDaily=TEMP_DIA
New PVSystem.GD_45f3e8673cf643e808e3e323b5967ba67e9dd426031641f7a7a11c2c33cb62f7_3 phases=1 bus1=2603666-9939035.3.4 conn=wye kv=0.1270 pf=1 pmpp=0.87 kva=0.87 irradiance=1 temperature=25 %cutin=20 %cutout=20 effcurve=MyEff P-TCurve=MyPvsT Daily=IRRAD_DIA TDaily=TEMP_DIA
New PVSystem.GD_e8ab858828424bd0deca0a75e2a0c36ea6a118ab2b41b54c8ffeeb26747d145f_1 phases=1 bus1=2603666-9939035.1.4 conn=wye kv=0.1270 pf=1 pmpp=1.82 kva=1.82 irradiance=1 temperature=25 %cutin=20 %cutout=20 effcurve=MyEff P-TCurve=MyPvsT Daily=IRRAD_DIA TDaily=TEMP_DIA
New PVSystem.GD_e8ab858828424bd0deca0a75e2a0c36ea6a118ab2b41b54c8ffeeb26747d145f_2 phases=1 bus1=2603666-9939035.2.4 conn=wye kv=0.1270 pf=1 pmpp=1.82 kva=1.82 irradiance=1 temperature=25 %cutin=20 %cutout=20 effcurve=MyEff P-TCurve=MyPvsT Daily=IRRAD_DIA TDaily=TEMP_DIA
New PVSystem.GD_e8ab858828424bd0deca0a75e2a0c36ea6a118ab2b41b54c8ffeeb26747d145f_3 phases=1 bus1=2603666-9939035.3.4 conn=wye kv=0.1270 pf=1 pmpp=1.82 kva=1.82 irradiance=1 temperature=25 %cutin=20 %cutout=20 effcurve=MyEff P-TCurve=MyPvsT Daily=IRRAD_DIA TDaily=TEMP_DIA
New PVSystem.GD_05764e4b3d5a1aefef09fc553a6052c8cf57ee9dd336dea66885d104617ef27d_1 phases=1 bus1=2603666-9939035.1.4 conn=wye kv=0.1270 pf=1 pmpp=0.70 kva=0.70 irradiance=1 temperature=25 %cutin=20 %cutout=20 effcurve=MyEff P-TCurve=MyPvsT Daily=IRRAD_DIA TDaily=TEMP_DIA
New PVSystem.GD_05764e4b3d5a1aefef09fc553a6052c8cf57ee9dd336dea66885d104617ef27d_2 phases=1 bus1=2603666-9939035.2.4 conn=wye kv=0.1270 pf=1 pmpp=0.70 kva=0.70 irradiance=1 temperature=25 %cutin=20 %cutout=20 effcurve=MyEff P-TCurve=MyPvsT Daily=IRRAD_DIA TDaily=TEMP_DIA
New PVSystem.GD_05764e4b3d5a1aefef09fc553a6052c8cf57ee9dd336dea66885d104617ef27d_3 phases=1 bus1=2603666-9939035.3.4 conn=wye kv=0.1270 pf=1 pmpp=0.70 kva=0.70 irradiance=1 temperature=25 %cutin=20 %cutout=20 effcurve=MyEff P-TCurve=MyPvsT Daily=IRRAD_DIA TDaily=TEMP_DIA
New PVSystem.GD_4e817ac7a44d8c468e10f9942970fd6445d94b5463dcc44e1ad836d87f4e31f1_1 phases=1 bus1=2603666-9939035.1.4 conn=wye kv=0.1270 pf=1 pmpp=0.48 kva=0.48 irradiance=1 temperature=25 %cutin=20 %cutout=20 effcurve=MyEff P-TCurve=MyPvsT Daily=IRRAD_DIA TDaily=TEMP_DIA
New PVSystem.GD_4e817ac7a44d8c468e10f9942970fd6445d94b5463dcc44e1ad836d87f4e31f1_2 phases=1 bus1=2603666-9939035.2.4 conn=wye kv=0.1270 pf=1 pmpp=0.48 kva=0.48 irradiance=1 temperature=25 %cutin=20 %cutout=20 effcurve=MyEff P-TCurve=MyPvsT Daily=IRRAD_DIA TDaily=TEMP_DIA
New PVSystem.GD_4e817ac7a44d8c468e10f9942970fd6445d94b5463dcc44e1ad836d87f4e31f1_3 phases=1 bus1=2603666-9939035.3.4 conn=wye kv=0.1270 pf=1 pmpp=0.48 kva=0.48 irradiance=1 temperature=25 %cutin=20 %cutout=20 effcurve=MyEff P-TCurve=MyPvsT Daily=IRRAD_DIA TDaily=TEMP_DIA
New PVSystem.GD_b87fb614c295b821cd6ee3ddd869ac4c2e41ce2512b49a36914c40b3c13bf330_1 phases=1 bus1=2772911-10826933.1.4 conn=wye kv=0.1270 pf=1 pmpp=1.33 kva=1.33 irradiance=1 temperature=25 %cutin=20 %cutout=20 effcurve=MyEff P-TCurve=MyPvsT Daily=IRRAD_DIA TDaily=TEMP_DIA
New PVSystem.GD_b87fb614c295b821cd6ee3ddd869ac4c2e41ce2512b49a36914c40b3c13bf330_2 phases=1 bus1=2772911-10826933.2.4 conn=wye kv=0.1270 pf=1 pmpp=1.33 kva=1.33 irradiance=1 temperature=25 %cutin=20 %cutout=20 effcurve=MyEff P-TCurve=MyPvsT Daily=IRRAD_DIA TDaily=TEMP_DIA
New PVSystem.GD_b87fb614c295b821cd6ee3ddd869ac4c2e41ce2512b49a36914c40b3c13bf330_3 phases=1 bus1=2772911-10826933.3.4 conn=wye kv=0.1270 pf=1 pmpp=1.33 kva=1.33 irradiance=1 temperature=25 %cutin=20 %cutout=20 effcurve=MyEff P-TCurve=MyPvsT Daily=IRRAD_DIA TDaily=TEMP_DIA
New PVSystem.GD_c6644ec8ea90beda7a0b708e00ad0fcc0b0d9ecf7a97479b1f80fb37cd9068f0_1 phases=1 bus1=2772911-10826933.1.4 conn=wye kv=0.1270 pf=1 pmpp=2.04 kva=2.04 irradiance=1 temperature=25 %cutin=20 %cutout=20 effcurve=MyEff P-TCurve=MyPvsT Daily=IRRAD_DIA TDaily=TEMP_DIA
New PVSystem.GD_c6644ec8ea90beda7a0b708e00ad0fcc0b0d9ecf7a97479b1f80fb37cd9068f0_2 phases=1 bus1=2772911-10826933.2.4 conn=wye kv=0.1270 pf=1 pmpp=2.04 kva=2.04 irradiance=1 temperature=25 %cutin=20 %cutout=20 effcurve=MyEff P-TCurve=MyPvsT Daily=IRRAD_DIA TDaily=TEMP_DIA
New PVSystem.GD_c6644ec8ea90beda7a0b708e00ad0fcc0b0d9ecf7a97479b1f80fb37cd9068f0_3 phases=1 bus1=2772911-10826933.3.4 conn=wye kv=0.1270 pf=1 pmpp=2.04 kva=2.04 irradiance=1 temperature=25 %cutin=20 %cutout=20 effcurve=MyEff P-TCurve=MyPvsT Daily=IRRAD_DIA TDaily=TEMP_DIA
New PVSystem.GD_27aabbd0ac67924d27c16751565b17e9c4c18c26c8f0bd37b187a750fe698737_1 phases=1 bus1=2772911-10826933.1.4 conn=wye kv=0.1270 pf=1 pmpp=0.54 kva=0.54 irradiance=1 temperature=25 %cutin=20 %cutout=20 effcurve=MyEff P-TCurve=MyPvsT Daily=IRRAD_DIA TDaily=TEMP_DIA
New PVSystem.GD_27aabbd0ac67924d27c16751565b17e9c4c18c26c8f0bd37b187a750fe698737_2 phases=1 bus1=2772911-10826933.2.4 conn=wye kv=0.1270 pf=1 pmpp=0.54 kva=0.54 irradiance=1 temperature=25 %cutin=20 %cutout=20 effcurve=MyEff P-TCurve=MyPvsT Daily=IRRAD_DIA TDaily=TEMP_DIA
New PVSystem.GD_27aabbd0ac67924d27c16751565b17e9c4c18c26c8f0bd37b187a750fe698737_3 phases=1 bus1=2772911-10826933.3.4 conn=wye kv=0.1270 pf=1 pmpp=0.54 kva=0.54 irradiance=1 temperature=25 %cutin=20 %cutout=20 effcurve=MyEff P-TCurve=MyPvsT Daily=IRRAD_DIA TDaily=TEMP_DIA
New PVSystem.GD_76474ea2aa071a29692f15de8cb921421d4a303befbbe85bc44c00aa7aa4b87b_1 phases=1 bus1=2772911-10826933.1.4 conn=wye kv=0.1270 pf=1 pmpp=0.55 kva=0.55 irradiance=1 temperature=25 %cutin=20 %cutout=20 effcurve=MyEff P-TCurve=MyPvsT Daily=IRRAD_DIA TDaily=TEMP_DIA
New PVSystem.GD_76474ea2aa071a29692f15de8cb921421d4a303befbbe85bc44c00aa7aa4b87b_2 phases=1 bus1=2772911-10826933.2.4 conn=wye kv=0.1270 pf=1 pmpp=0.55 kva=0.55 irradiance=1 temperature=25 %cutin=20 %cutout=20 effcurve=MyEff P-TCurve=MyPvsT Daily=IRRAD_DIA TDaily=TEMP_DIA
New PVSystem.GD_76474ea2aa071a29692f15de8cb921421d4a303befbbe85bc44c00aa7aa4b87b_3 phases=1 bus1=2772911-10826933.3.4 conn=wye kv=0.1270 pf=1 pmpp=0.55 kva=0.55 irradiance=1 temperature=25 %cutin=20 %cutout=20 effcurve=MyEff P-TCurve=MyPvsT Daily=IRRAD_DIA TDaily=TEMP_DIA
New PVSystem.GD_1ed55494c8295ffb08d9e390149f77ea8a0461a010fff8026c160eb26530eba5_1 phases=1 bus1=2772911-10826933.1.4 conn=wye kv=0.1270 pf=1 pmpp=0.96 kva=0.96 irradiance=1 temperature=25 %cutin=20 %cutout=20 effcurve=MyEff P-TCurve=MyPvsT Daily=IRRAD_DIA TDaily=TEMP_DIA
New PVSystem.GD_1ed55494c8295ffb08d9e390149f77ea8a0461a010fff8026c160eb26530eba5_2 phases=1 bus1=2772911-10826933.2.4 conn=wye kv=0.1270 pf=1 pmpp=0.96 kva=0.96 irradiance=1 temperature=25 %cutin=20 %cutout=20 effcurve=MyEff P-TCurve=MyPvsT Daily=IRRAD_DIA TDaily=TEMP_DIA
New PVSystem.GD_1ed55494c8295ffb08d9e390149f77ea8a0461a010fff8026c160eb26530eba5_3 phases=1 bus1=2772911-10826933.3.4 conn=wye kv=0.1270 pf=1 pmpp=0.96 kva=0.96 irradiance=1 temperature=25 %cutin=20 %cutout=20 effcurve=MyEff P-TCurve=MyPvsT Daily=IRRAD_DIA TDaily=TEMP_DIA
New PVSystem.GD_c77e1ae3db29741c288166e4ea837022699d1093aaee617a92bbaaffaf1196fe_1 phases=1 bus1=2772911-10826933.1.4 conn=wye kv=0.1270 pf=1 pmpp=0.76 kva=0.76 irradiance=1 temperature=25 %cutin=20 %cutout=20 effcurve=MyEff P-TCurve=MyPvsT Daily=IRRAD_DIA TDaily=TEMP_DIA
New PVSystem.GD_c77e1ae3db29741c288166e4ea837022699d1093aaee617a92bbaaffaf1196fe_2 phases=1 bus1=2772911-10826933.2.4 conn=wye kv=0.1270 pf=1 pmpp=0.76 kva=0.76 irradiance=1 temperature=25 %cutin=20 %cutout=20 effcurve=MyEff P-TCurve=MyPvsT Daily=IRRAD_DIA TDaily=TEMP_DIA
New PVSystem.GD_c77e1ae3db29741c288166e4ea837022699d1093aaee617a92bbaaffaf1196fe_3 phases=1 bus1=2772911-10826933.3.4 conn=wye kv=0.1270 pf=1 pmpp=0.76 kva=0.76 irradiance=1 temperature=25 %cutin=20 %cutout=20 effcurve=MyEff P-TCurve=MyPvsT Daily=IRRAD_DIA TDaily=TEMP_DIA
New PVSystem.GD_7c9d09982663c5843575cb9cc62618a51173aa62eb13a7eee9845d4a9af847f7_1 phases=1 bus1=2772911-10826933.1.4 conn=wye kv=0.1270 pf=1 pmpp=0.89 kva=0.89 irradiance=1 temperature=25 %cutin=20 %cutout=20 effcurve=MyEff P-TCurve=MyPvsT Daily=IRRAD_DIA TDaily=TEMP_DIA
New PVSystem.GD_7c9d09982663c5843575cb9cc62618a51173aa62eb13a7eee9845d4a9af847f7_2 phases=1 bus1=2772911-10826933.2.4 conn=wye kv=0.1270 pf=1 pmpp=0.89 kva=0.89 irradiance=1 temperature=25 %cutin=20 %cutout=20 effcurve=MyEff P-TCurve=MyPvsT Daily=IRRAD_DIA TDaily=TEMP_DIA
New PVSystem.GD_7c9d09982663c5843575cb9cc62618a51173aa62eb13a7eee9845d4a9af847f7_3 phases=1 bus1=2772911-10826933.3.4 conn=wye kv=0.1270 pf=1 pmpp=0.89 kva=0.89 irradiance=1 temperature=25 %cutin=20 %cutout=20 effcurve=MyEff P-TCurve=MyPvsT Daily=IRRAD_DIA TDaily=TEMP_DIA
...
